SOLUTION_SPECIES
H2O + 0.01e- = H2O-0.01
log_k   -9.0

SOLUTION 1
       pe      13.75
       pH      7
       temp      25
-units mol/kgw
Ag 1e-07 
Br 0.1 
Na 0.1 

KNOBS
-iterations 200

EQUILIBRIUM_PHASES 1
AgBrs   0.0   0
       Fix_H+ -7          NaOH 10.0
-force_equality true
       Fix_pe -13.75          O2
-force_equality true

SELECTED_OUTPUT
-file selected.out
-selected_out true
-user_punch true
-high_precision true
-reset false
-simulation false
-state false
-distance false
-time false
-step false
-ph false
-pe false
-reaction false
-temperature false
-alkalinity false
-ionic_strength false
-water false
-charge_balance false
-percent_error false
-molalities Ag+ Br- AgBr AgBr2- AgBr3-2 AgBr4-3  
-equilibrium_phases AgBrs  