TITLE Carbonate Species Distribution as a Function of pH
SOLUTION 1
    temp 25
    pH 2
    pe 4
    C(4) 1e-3
    units mol/kgw
    -water 1
INCREMENTAL_REACTIONS true
REACTION 1
    HCl 1
    10 moles in 100 steps
REACTION 2
    NaOH 1
    10 moles in 100 steps
SELECTED_OUTPUT
    -file carbonate_distribution.txt
    -reset false
    -ph
    -molalities H2CO3 HCO3- CO3-2
