SOLUTION_MASTER_SPECIES
Ac	    Ac-	        0.0	1		1
 
SOLUTION_SPECIES
#Acetic acid
Ac- = Ac-
       log_k   0.0;
        -gamma          1e10     0.0
Ac- + H+ = HAc
        log_k   4.75;
        -gamma          1e10     0.0
 
SOLUTION 1
    temp 25
    pH 4 
    pe 13
    Ac 0.01
-units mol/kgw
END
 
USE solution 1 
EQUILIBRIUM_PHASES 
       Fix_H+ -4          NaOH 10.0
-force_equality true
       Fix_pe -13          O2
-force_equality true
 
SELECTED_OUTPUT
        -file outpunch.txt
        -selected_out true
        -user_punch true
        -high_precision true
        -reset false
        -simulation false
        -state false
        -distance false
        -time false
        -step false
        -ph false
        -pe false
        -reaction false
        -temperature false
        -alkalinity false
        -ionic_strength false
        -water false
        -charge_balance false
        -percent_error false
        -molalities 
 
USER_PUNCH
-headings pH Ac HAc
 -start 
 10 PUNCH -LA("H+"), MOL("Ac-"), MOL("HAc")
 -end

END